science/ieee8500_b0_may01_fine_scale/csv/B0_0.574_DAILY_MAX_HEATMAP.csv
element_type,element_id,from_bus,to_bus,x_from,y_from,x_to,y_to,data_status,B0_element_max_loading,max_terminal,max_phase,max_slot,max_time_AEST
line,line.hvmv_sub_connector,_hvmv_sub_lsb,hvmv_sub_48332,1693852,12277577.7570982,1693886,12277577.7570982,OK,0.907051633698081,1,1,75,2025-05-01T18:45:00+10:00
line,line.ln5502549-1,m1009763,l2673322,1662434.20000574,12281193.2184775,1662466.18157377,12281293.8203336,OK,0.002870464628580239,2,2,75,2025-05-01T18:45:00+10:00
line,line.ln6259988-1,m1069148,l2673309,1674268.12974476,12266091.5900475,1673916.32020843,12266089.1693115,OK,0.0021005960519817125,2,3,75,2025-05-01T18:45:00+10:00
line,line.ln6077796-1,m1069588,l2804270,1674984.67169743,12287113.040307,1674953.4315054,12287092.199859,OK,0.0024356114867038186,2,2,75,2025-05-01T18:45:00+10:00
line,line.ln5835135-2,m3036164,l2935553,1668428.08980332,12289757.0697495,1668339.05914724,12289885.9790616,OK,0.024047072469884072,2,2,75,2025-05-01T18:45:00+10:00
line,line.ln5896826-1,m1209749,l2748840,1692000.00048127,12273042.1702779,1692304.77974556,12272449.8804854,OK,0.001205570406155132,2,2,75,2025-05-01T18:45:00+10:00
line,line.ln5714038-1,m1108264,m1108263,1679540.54190967,12260421.0589702,1679627.65154175,12260104.7699459,OK,0.00318642562534253,2,2,75,2025-05-01T18:45:00+10:00
line,line.ln5653457-1,l3085398,m1026891,1663360.6087106,12285489.5210735,1663258.8886465,12285227.3688813,OK,0.08949275710435545,2,2,75,2025-05-01T18:45:00+10:00
line,line.ln5835173-1,l3216367,m1069468,1673511.27086405,12278909.6206514,1673577.79809611,12278791.4018993,OK,0.09968558082996955,2,2,75,2025-05-01T18:45:00+10:00
line,line.ln6321415-1,m1142800,m1142799,1686401.39106806,12272256.4509812,1686166.70255584,12272059.916709,OK,0.002045666520402846,2,2,75,2025-05-01T18:45:00+10:00
line,line.ln5565092-1,m1047592,p827512,1668812.72058768,12283524.2602717,1668818.20103568,12283534.9303517,OK,0.0031550841891305227,2,3,75,2025-05-01T18:45:00+10:00
line,line.ln6073648-1,m1047339,p895104,1671536.88827021,12264379.6013099,1671529.47041421,12264403.8864939,OK,0.004443670056028699,2,1,75,2025-05-01T18:45:00+10:00
line,line.ln5774457-1,m1026915,m1026920,1663539.86195877,12285876.8797939,1663580.1502148,12286004.691378,OK,0.04309786031492157,2,1,75,2025-05-01T18:45:00+10:00
line,line.ln5534966-3,n1138596,l3254207,1673874.29115239,12274484.2244233,1673949.12097646,12274513.4985353,OK,0.016077158897918276,2,1,75,2025-05-01T18:45:00+10:00
line,line.ln5859996-1,m1069464,p873787,1673734.40046426,12278609.6623791,1673733.52392026,12278589.2233391,OK,0.004096241426706856,2,2,75,2025-05-01T18:45:00+10:00
line,line.ln6138610-2,n1144665,m1047515,1669973.12148476,12282252.9970385,1669891.14823668,12282216.1903825,OK,0.22104135623509755,2,1,75,2025-05-01T18:45:00+10:00
line,line.ln6258435-3,n1137002,m1047707,1670188.25978896,12285034.7176171,1669945.41204473,12285152.3997932,OK,0.003676877460692487,2,1,75,2025-05-01T18:45:00+10:00
line,line.ln5804790-1,l2729406,l2897768,1677474.04027574,12277937.7504425,1678112.75822834,12277952.0618665,OK,0.002158179995667329,2,3,75,2025-05-01T18:45:00+10:00
line,line.ln6900591-14,l3649301,l3649302,1668008.60615493,12284893.004209,1668009.60967493,12285099.8931692,OK,0.006649047765795144,2,1,75,2025-05-01T18:45:00+10:00
line,line.ln6409873-1,l2970842,m1089113,1676929.30094724,12268558.7337298,1677067.30337936,12268367.5119696,OK,0.015352697064032974,2,2,75,2025-05-01T18:45:00+10:00
line,line.ln6014135-1,m1047312,p893163,1670458.30087721,12263309.3083169,1670449.4248452,12263319.6097569,OK,0.013928426856871335,2,1,75,2025-05-01T18:45:00+10:00
line,line.ln6077784-1,l2822871,m1026872,1665333.16039244,12284492.3416806,1665207.33946432,12284644.3483367,OK,0.12972307268904157,2,2,75,2025-05-01T18:45:00+10:00
line,line.ln5744338-1,m1026312,l2973163,1664935.63949607,12258310.4106482,1664810.08890395,12258187.8091761,OK,0.038785386801510204,2,2,75,2025-05-01T18:45:00+10:00
line,line.ln6991381-4,l3728038,l3728039,1669619.09601243,12279615.9922361,1669413.10407624,12279773.8848442,OK,0.007391454977808497,2,1,75,2025-05-01T18:45:00+10:00
line,line.ln5774480-1,m1069567,m1069582,1674888.19041734,12286519.2595705,1675139.09908957,12286953.7919229,OK,0.045996470881692175,2,2,75,2025-05-01T18:45:00+10:00
line,line.ln5986938-3,n1140830,l3216351,1664731.43341588,12277883.8757544,1664756.5992399,12277870.1336744,OK,0.007832629901845656,2,1,75,2025-05-01T18:45:00+10:00
line,line.ln5894230-1,l2952007,l2861158,1687211.45289281,12284312.6051044,1686796.48303643,12284325.7737444,OK,0.002113599710571576,2,3,75,2025-05-01T18:45:00+10:00
line,line.ln5683858-3,n1140827,m1026726,1665613.6258007,12278455.280043,1665615.0266327,12278511.919531,OK,0.02005666002922621,2,2,75,2025-05-01T18:45:00+10:00
line,line.ln5920279-5,l2730106,n1142099,1681252.82146326,12280907.3791173,1681215.67074323,12280970.6705093,OK,0.5875303094585482,2,1,75,2025-05-01T18:45:00+10:00
line,line.ln6439600-1,m1026658,l3172805,1663229.61043848,12276549.5300252,1663438.05997467,12276268.3723929,OK,0.0018723487872225964,2,1,75,2025-05-01T18:45:00+10:00
line,line.ln5589097-1,p895112,l3048962,1685510.74453923,12276023.5667607,1685564.43900328,12276088.1688728,OK,0.0028227701095020603,2,1,75,2025-05-01T18:45:00+10:00
line,line.ln5651975-1,l2991914,m1047503,1669053.9790839,12281719.001518,1668955.67098781,12281655.632302,OK,0.1164775898832973,2,1,75,2025-05-01T18:45:00+10:00
line,line.ln5865236-1,m1047751,l2973154,1670806.28884553,12288000.0004359,1670826.33057355,12287978.0008198,OK,0.0036881255846879816,2,1,75,2025-05-01T18:45:00+10:00
line,line.ln5593232-1,l3010565,l2897775,1676182.30933054,12269540.1803867,1676578.54817891,12269464.5805146,OK,0.0020895218259764856,2,3,75,2025-05-01T18:45:00+10:00
line,line.ln5740283-1,m1125955,m1125957,1683291.87170516,12277627.6504742,1683309.14863318,12277641.9004582,OK,0.0025265358872449658,2,3,75,2025-05-01T18:45:00+10:00
line,line.ln6106559-1,m1069640,l2804269,1674008.16891252,12289009.6111888,1674078.03028858,12289268.351413,OK,0.0056868386612378774,2,2,75,2025-05-01T18:45:00+10:00
line,line.ln5714056-3,m1026702,n1139551,1666852.66989785,12278175.7812907,1666463.86528949,12278010.8066986,OK,0.08843162038034981,2,1,75,2025-05-01T18:45:00+10:00
line,line.ln5985355-3,n1136355,l2783231,1675345.01729776,12285527.1469296,1675138.93115357,12285645.6196337,OK,0.08030696185430757,2,2,75,2025-05-01T18:45:00+10:00
line,line.ln5531956-1,l2748143,l3251854,1675902.33953828,12286396.3713784,1675902.33953828,12286616.3716346,OK,0.0018535917659506975,2,1,75,2025-05-01T18:45:00+10:00
line,line.ln5650048-1,m1069610,m1069600,1674805.91406526,12287986.7048199,1674960.5257774,12287859.8394117,OK,0.0020358376021988173,2,2,75,2025-05-01T18:45:00+10:00
line,line.ln6290203-1,m1069424,l2935549,1673946.92961646,12276991.3000096,1673877.42868839,12276709.0610333,OK,0.08697926089645648,2,2,75,2025-05-01T18:45:00+10:00
line,line.ln6134414-1,p895089,l3235242,1676362.37358671,12283389.8172636,1676340.52961869,12283192.5088474,OK,0.004174987079009616,2,3,75,2025-05-01T18:45:00+10:00
line,line.ln6259998-2,m1026795,n1140522,1668183.45210709,12280738.2839491,1668142.77063505,12280738.5665731,OK,0.0025350635527879926,2,3,75,2025-05-01T18:45:00+10:00
line,line.ln6078767-1,l3030199,m1125934,1683921.11151375,12273546.1707904,1683853.92072969,12273477.4481023,OK,0.2415333755000329,2,3,75,2025-05-01T18:45:00+10:00
line,line.ln6017300-1,m1069189,l2860487,1675446.08200185,12268159.0501454,1675290.42990571,12268398.2401616,OK,0.0012558449310130664,2,3,75,2025-05-01T18:45:00+10:00
line,line.ln8979257-2,221-312488,m1089183,1678663.47771685,12279597.547948,1678662.94933285,12279553.204652,OK,0.0044572118768107585,2,3,75,2025-05-01T18:45:00+10:00
line,line.ln81048109-1,m1108464,l3102286,1680280.35733436,12280152.5477566,1680128.16635822,12279984.8902844,OK,0.011353015936860507,2,2,75,2025-05-01T18:45:00+10:00
line,line.293471,f739845,293471,1669719.14900452,12262514.7088921,1669719.14900452,12262515.7088921,OK,0.002095727818821606,2,3,75,2025-05-01T18:45:00+10:00
line,line.ln5534965-2,p827499,n1139254,1673775.8274083,12276424.5160091,1673761.93377629,12276440.1545371,OK,0.001849055959393167,2,1,75,2025-05-01T18:45:00+10:00
line,line.ln5655683-1,m1026657,m1026656,1666714.59373772,12276478.3005851,1666725.33754573,12276461.7650331,OK,0.0293621903506772,2,1,75,2025-05-01T18:45:00+10:00
line,line.ln5686247-1,m1108299,m1108300,1681333.09077534,12270993.318308,1681355.32386336,12270995.038628,OK,0.002871417700884047,2,2,75,2025-05-01T18:45:00+10:00
line,line.ln6048642-1,l3198355,l2805037,1681976.74031194,12271041.8886761,1682339.37148027,12271067.9801961,OK,0.000004855471418308629,1,2,51,2025-05-01T12:45:00+10:00
line,line.ln5928544-3,n1137994,m1069484,1672916.4456475,12279872.8646843,1673050.76167962,12280000.0004284,OK,0.021193298033497805,2,3,75,2025-05-01T18:45:00+10:00
line,line.ln6108172-1,l2860504,l2860493,1664980.35143211,12278329.3198509,1664964.77024809,12279012.3483315,OK,0.00373514861978165,2,1,75,2025-05-01T18:45:00+10:00
line,line.ln5532754-1,m1026783,m1026780,1668025.07617094,12280424.2026688,1667999.91034692,12280371.0816448,OK,0.10965721825064526,2,1,75,2025-05-01T18:45:00+10:00
line,line.ln5591834-1,p895111,l2895496,1684762.95420253,12276444.5249691,1684533.77071432,12276445.0943131,OK,0.0054832194588861375,2,3,75,2025-05-01T18:45:00+10:00
line,line.ln6347196-2,n1140819,m1026700,1665943.435721,12278103.5442346,1665859.20557693,12278130.2255787,OK,0.054238603127146984,2,1,75,2025-05-01T18:45:00+10:00
line,line.ln5532741-1,m1089173,l2935551,1677019.24091532,12277474.7304101,1677018.75349132,12277674.3940262,OK,0.013119879190238765,2,3,75,2025-05-01T18:45:00+10:00
line,line.ln5804803-1,m1026344,m1026364,1667363.35098633,12260734.9313545,1666951.89959394,12261536.7602192,OK,0.0011213392536168728,2,1,75,2025-05-01T18:45:00+10:00
line,line.ln6169248-1,l2879070,l3216345,1668406.4055793,12283697.1892959,1668136.74132305,12283811.72984,OK,0.18855811686641896,2,1,75,2025-05-01T18:45:00+10:00
line,line.ln5532786-2,m1069428,n1139257,1674009.03316852,12277235.0242978,1673959.45518447,12277256.5692579,OK,0.0032860319765157992,2,2,75,2025-05-01T18:45:00+10:00
line,line.ln5744339-1,l2991919,m1026361,1667350.28884232,12261158.4700429,1667347.24141831,12261438.2800911,OK,0.023740141081575943,2,1,75,2025-05-01T18:45:00+10:00
line,line.ln5531255-3,n1147857,m1009742,1662873.97114215,12281228.5137096,1662801.22208608,12281064.2682054,OK,0.02444417068459967,2,1,75,2025-05-01T18:45:00+10:00
line,line.ln5926308-2,q14412,m1047325,1671194.02849389,12264023.3119015,1671194.02849389,12264021.3119015,OK,0.06999705558688275,2,2,75,2025-05-01T18:45:00+10:00
line,line.ln5683856-3,n1139263,l3048227,1673655.35995219,12278801.3797553,1673739.92187227,12278812.2587313,OK,0.0018484288872415273,2,1,75,2025-05-01T18:45:00+10:00
line,line.ln6171502-1,p827506,m1069469,1673605.50344014,12278794.9654193,1673628.44513616,12278797.9145393,OK,0.0029523859944973886,2,1,75,2025-05-01T18:45:00+10:00
line,line.ln5593228-1,m1027019,l2785522,1663359.5519426,12292569.7110321,1663557.67955878,12292571.0299441,OK,0.002058311519343881,2,2,75,2025-05-01T18:45:00+10:00
line,line.ln6380800-1,l3216338,l2973146,1659686.97184318,12283815.981488,1659688.01222718,12283623.7889758,OK,0.0020669965688939816,2,2,75,2025-05-01T18:45:00+10:00
line,line.ln6199525-2,m3037452,l2973164,1667364.19885833,12262666.5394203,1667597.83060255,12262647.3087003,OK,0.0007466484099604655,2,1,75,2025-05-01T18:45:00+10:00
line,line.ln5772710-2,l3120376,m1026925,1667170.01978615,12285936.3004659,1667245.43124222,12286219.5183862,OK,0.014755001634033925,2,1,75,2025-05-01T18:45:00+10:00
line,line.ln8961760-1,m1047612,p828360,1669965.62580475,12283881.77144,1669953.66958074,12283868.823984,OK,0.013346741419064842,2,3,75,2025-05-01T18:45:00+10:00
line,line.ln6047556-1,m1089195,l3141393,1676298.34081865,12282743.058863,1675928.5580343,12282735.399343,OK,0.002089542169167614,2,3,75,2025-05-01T18:45:00+10:00
line,line.ln6138603-1,m1026946,m1026940,1664871.86887201,12287436.3785473,1664735.88986388,12287037.079987,OK,0.0032761274669898355,2,2,75,2025-05-01T18:45:00+10:00
line,line.ln6108139-1,m1047471,l3216349,1668737.26817161,12277443.289514,1668791.46644366,12277469.8725541,OK,0.0012477347603901093,2,2,75,2025-05-01T18:45:00+10:00
line,line.ln6388581-2,m1047401,l2748132,1670317.46401308,12272009.429413,1670146.82874892,12271940.8214129,OK,0.0011204112624558274,2,1,75,2025-05-01T18:45:00+10:00
line,line.ln5774460-1,l3122820,l3141398,1667666.90964261,12274675.6509835,1667627.36685857,12274484.7937673,OK,0.0011215499497820914,2,1,75,2025-05-01T18:45:00+10:00
line,line.ln5624387-1,m1108360,l3048968,1680168.20066225,12274271.2406151,1680113.0807902,12274442.9817992,OK,0.0032115891322281177,2,3,75,2025-05-01T18:45:00+10:00
line,line.ln6137087-1,l2801950,m1069224,1674219.15796871,12270999.056804,1674133.53928063,12271064.7812201,OK,0.016761459638372164,2,3,75,2025-05-01T18:45:00+10:00
line,line.ln6077809-1,l2766746,m1027073,1666196.35962524,12293191.2094007,1666181.47885723,12293553.369529,OK,0.021265188530781264,2,3,75,2025-05-01T18:45:00+10:00
line,line.ln6440079-1,l2895496,m1142873,1684533.77071432,12276445.0943131,1684367.89090616,12276444.0006811,OK,0.005483807516243552,2,3,75,2025-05-01T18:45:00+10:00
line,line.ln5804794-1,m1069181,l2973151,1673972.43950448,12268069.2207693,1673727.53966425,12268104.8805453,OK,0.016721512898024534,2,1,75,2025-05-01T18:45:00+10:00
line,line.ln5654484-1,l3179682,l2786274,1681672.94818365,12271868.3385968,1681741.04827972,12271928.6603889,OK,0.0021190552164522818,2,3,75,2025-05-01T18:45:00+10:00
line,line.ln5774465-1,l3066816,m1026667,1664599.95591175,12277333.7378979,1664354.33107952,12277019.9392416,OK,0.003734439802752367,2,1,75,2025-05-01T18:45:00+10:00
line,line.ln5473349-1,m1108529,m1108532,1680506.51797457,12283208.2292954,1680446.60168651,12283263.3204955,OK,0.5310040224228261,2,2,75,2025-05-01T18:45:00+10:00
line,line.ln6169253-1,l2766723,l3122822,1664187.95155937,12278339.5803309,1664285.66163946,12278499.639723,OK,0.0018665271399203578,2,1,75,2025-05-01T18:45:00+10:00
line,line.ln6350536-1,l2673312,l3235247,1663803.61978301,12289424.9292052,1663595.39143082,12289860.7190296,OK,0.0011171343294270218,2,1,75,2025-05-01T18:45:00+10:00
line,line.ln6048523-1,m1166391,l3254873,1689062.43939054,12283329.6388315,1688723.45033422,12283409.8180316,OK,0.03047541514637876,2,3,75,2025-05-01T18:45:00+10:00
line,line.ln5594152-1,l2861157,p901951,1691680.49200097,12281568.2318539,1691331.97974465,12281760.6987981,OK,0.03384113942579184,2,3,75,2025-05-01T18:45:00+10:00
line,line.ln5865248-1,m1047346,m1047345,1671966.14907061,12264735.5887662,1671856.24110251,12264646.3819821,OK,0.07305908222137322,2,2,75,2025-05-01T18:45:00+10:00
line,line.ln6046143-1,l2989596,l2822873,1673763.40014429,12286115.4963701,1673476.56136002,12286162.9198582,OK,0.0008087474385500786,2,2,75,2025-05-01T18:45:00+10:00
line,line.ln5803287-1,m1108328,l2875754,1680988.14613502,12272155.1732851,1681057.91739908,12272155.8081651,OK,0.004282456467182857,2,3,75,2025-05-01T18:45:00+10:00
line,line.ln5589094-1,l2786204,m1209819,1692261.57104152,12277819.4989224,1692167.75625743,12278034.6536106,OK,0.046466319323417785,2,3,75,2025-05-01T18:45:00+10:00
line,line.ln5954983-1,p901972,m1009726,1662794.20154207,12281025.6470214,1662882.04026215,12280743.4531011,OK,0.024445318621548445,2,1,75,2025-05-01T18:45:00+10:00
line,line.ln5924696-2,m1047702,n1137001,1670249.62196502,12285031.1622891,1670369.50369313,12285007.2621291,OK,0.001098608140668634,2,1,75,2025-05-01T18:45:00+10:00
line,line.ln6506311-4,l2767340,m3037449,1681592.51093558,12278552.9696431,1681586.42018357,12278554.7882671,OK,0.0012663201915030585,2,3,75,2025-05-01T18:45:00+10:00
line,line.ln5653493-1,m1047457,l2710546,1669348.39137218,12276271.3174169,1669268.7692281,12276376.129961,OK,0.024748112516448664,2,2,75,2025-05-01T18:45:00+10:00
line,line.ln5684836-1,l2674027,l2692633,1680654.82184671,12282665.0587349,1680603.55221466,12282881.7862871,OK,0.5520720261284578,2,1,75,2025-05-01T18:45:00+10:00
line,line.ln5715016-3,n1142108,l2674051,1682000.19400796,12272407.7244533,1681885.21519185,12272620.3560055,OK,0.0011208888918668926,2,1,75,2025-05-01T18:45:00+10:00
line,line.ln6138614-1,m1069135,r18242,1672616.09006322,12265429.3119028,1672458.68078307,12265257.6485427,OK,0.07305379201525634,2,2,75,2025-05-01T18:45:00+10:00
line,line.ln6077781-2,m1047534,n1136663,1671310.240206,12282700.4113109,1670978.48468569,12282522.5425108,OK,0.4703870007403632,2,1,75,2025-05-01T18:45:00+10:00
line,line.ln5675121-1,m1108508,l3097861,1678951.70094912,12282375.0987986,1678951.57397312,12282075.0995663,OK,0.0008337515674920338,2,3,75,2025-05-01T18:45:00+10:00
line,line.ln5773046-1,m1069560,m1069567,1674751.72808121,12286289.5886583,1674888.19041734,12286519.2595705,OK,0.050067272415813185,2,2,75,2025-05-01T18:45:00+10:00
line,line.ln6380809-2,l2973153,n1136998,1670296.77102106,12284293.5013604,1670297.01678106,12284328.0429284,OK,0.12097823320702497,2,2,75,2025-05-01T18:45:00+10:00
line,line.ln6018326-1,l2898515,m1166387,1688920.1894064,12276646.6707613,1688911.1986864,12276842.0212895,OK,0.0025168494395505416,2,3,75,2025-05-01T18:45:00+10:00
line,line.ln5472356-1,m1047442,l3235250,1671318.21102201,12275473.1503762,1671154.10068586,12275606.7496083,OK,0.000828159371765458,2,2,75,2025-05-01T18:45:00+10:00
line,line.ln6139641-1,m1142871,m1142874,1684905.47042666,12276397.9288731,1684789.44713056,12276444.9058971,OK,0.6552831052311799,2,1,75,2025-05-01T18:45:00+10:00
line,line.ln6018341-1,l2955081,m1108315,1681629.19061561,12272081.019301,1681524.37807152,12271788.5894768,OK,0.22659676727826392,2,3,75,2025-05-01T18:45:00+10:00
line,line.ln6017302-1,l2973162,m1026333,1667209.50932218,12260500.2387463,1667082.36129007,12260380.9017861,OK,0.056095625125417554,2,2,75,2025-05-01T18:45:00+10:00
line,line.ln6199505-1,m1009832,l2860479,1660588.93152402,12283805.79064,1660685.33907611,12283874.288048,OK,0.0008208511943312797,2,2,75,2025-05-01T18:45:00+10:00
line,line.ln5682327-1,m1026854,p901894,1666749.15168976,12284240.8513764,1666760.53856977,12284256.6045924,OK,0.027840525177114578,2,1,75,2025-05-01T18:45:00+10:00
line,line.ln6290243-1,m1026485,m1026492,1668094.13063501,12267867.8900811,1668244.85114715,12268022.9359693,OK,0.004122455392842316,2,2,75,2025-05-01T18:45:00+10:00
line,line.x8223_48332_sw,d6413567-3_int,e182724,1675034.79854547,12267900.4579531,1675034.79854547,12267899.4579531,OK,0.12072533760378672,2,2,75,2025-05-01T18:45:00+10:00
line,line.ln6413567-3,n1139541,d6413567-3_int,1675076.80302551,12267924.8900172,1675034.79854547,12267900.4579531,OK,0.1207253355964763,2,2,75,2025-05-01T18:45:00+10:00
line,line.ln5591731-3,m4122658,l2933135,1681438.32111144,12280344.7771327,1681436.43285543,12280349.9176127,OK,0.593165899350131,2,1,75,2025-05-01T18:45:00+10:00
line,line.ln5653470-1,m1026702,l2729414,1666852.66989785,12278175.7812907,1666900.0114659,12278019.0683306,OK,0.0021265249766306196,2,3,75,2025-05-01T18:45:00+10:00
line,line.ln6017316-1,l2729430,l2766742,1662906.80877418,12283538.3996637,1662560.90976585,12283624.4197598,OK,0.050438719724486054,2,2,75,2025-05-01T18:45:00+10:00
line,line.ln5926299-1,m1026972,l2860483,1668420.29511531,12289417.3557012,1668221.44250713,12289426.6986772,OK,0.0041499555203178655,2,2,75,2025-05-01T18:45:00+10:00
line,line.ln5683831-1,l2860490,l3104134,1672218.17185485,12264992.4202544,1672079.87860672,12264837.2310063,OK,0.07305727357900145,2,2,75,2025-05-01T18:45:00+10:00
line,line.ln6352700-1,m1089144,p827522,1678471.26882067,12269888.147875,1678470.43733267,12269896.610211,OK,0.007573508523176398,2,1,75,2025-05-01T18:45:00+10:00
line,line.ln6047570-1,m1089118,l3048208,1676496.02197083,12268725.4818899,1676550.56840288,12268587.2418898,OK,0.0010903272239961967,2,1,75,2025-05-01T18:45:00+10:00
line,line.ln5624342-1,m1108505,l2955047,1680783.09218283,12282090.0663504,1680741.10818279,12282264.0808145,OK,0.5560008986285232,2,2,75,2025-05-01T18:45:00+10:00
line,line.ln6259992-1,m1089148,l2766721,1677542.32878781,12270485.0088036,1677417.74075569,12270583.4889316,OK,0.0019054585712007044,2,1,75,2025-05-01T18:45:00+10:00
line,line.ln5841919-1,m1026745,l3029183,1668194.5031151,12278996.0544435,1668273.70337118,12279283.9704757,OK,0.0012494552271035966,2,2,75,2025-05-01T18:45:00+10:00
line,line.ln6380811-1,l2710512,m1047828,1671150.27092585,12292514.5010481,1671351.54017404,12292942.2790965,OK,0.023733095105331007,2,2,75,2025-05-01T18:45:00+10:00
line,line.ln5683832-1,m1047342,l3197645,1672335.22734296,12264504.144286,1672415.26727903,12264275.9847978,OK,0.0018539043294311683,2,1,75,2025-05-01T18:45:00+10:00
line,line.ln6077778-1,m1069192,l3235253,1674569.48884904,12268205.1096654,1674836.69140929,12268191.9819854,OK,0.0018330854847398693,2,1,75,2025-05-01T18:45:00+10:00
line,line.ln5561442-2,l3214071,m1125952,1683294.64469716,12277397.451178,1683189.43893707,12277539.7011621,OK,0.6524969474998915,2,1,75,2025-05-01T18:45:00+10:00
line,line.ln6259983-1,m1027101,l2860480,1668381.94836328,12294748.9714502,1668162.21025107,12295141.7286985,OK,0.002079440179932465,2,2,75,2025-05-01T18:45:00+10:00
line,line.ln5865244-1,l2710517,m1026646,1667793.57844273,12275161.3587599,1667921.66036285,12275065.2420238,OK,0.023012828517743573,2,1,75,2025-05-01T18:45:00+10:00
line,line.ln6350555-1,m1069662,l2935547,1674125.50702463,12289931.1661337,1673990.2120485,12290079.4208538,OK,0.0012207969661088278,2,2,75,2025-05-01T18:45:00+10:00
line,line.ln5714039-1,m1026931,l3216336,1666365.8111454,12286482.9485305,1666420.80813745,12286634.6602746,OK,0.008121022321346873,2,1,75,2025-05-01T18:45:00+10:00
line,line.ln5889821-1,l3142049,m1108493,1681066.65826309,12281234.1702856,1680936.25800697,12281479.4510538,OK,0.5762155756043663,2,1,75,2025-05-01T18:45:00+10:00
line,line.ln5804791-1,m1069169,l3010556,1674785.92148924,12267722.969505,1674600.99937707,12267568.9394248,OK,0.12072871782936272,2,2,75,2025-05-01T18:45:00+10:00
line,line.ln5653486-1,l2991933,l3122837,1662789.47066207,12283162.3213274,1662524.16045382,12283227.5296474,OK,0.006352586103107927,2,3,75,2025-05-01T18:45:00+10:00
line,line.ln5926286-1,l3216336,l2691936,1666420.80813745,12286634.6602746,1666498.21844152,12286840.2180348,OK,0.0062742542161172525,2,1,75,2025-05-01T18:45:00+10:00
line,line.ln6318859-1,l2897772,l3101814,1669385.57895621,12264828.1993263,1669331.47079616,12265005.3062705,OK,0.000002485480577474639,1,1,47,2025-05-01T11:45:00+10:00
line,line.ln5926316-1,l2766732,m1026485,1668123.29825103,12267833.5492171,1668094.13063501,12267867.8900811,OK,0.016558320721550696,2,2,75,2025-05-01T18:45:00+10:00
line,line.ln5591703-1,l2804269,l2989564,1674078.03028858,12289268.351413,1673941.77275245,12289419.7027092,OK,0.0036551511944086595,2,2,75,2025-05-01T18:45:00+10:00
line,line.ln5531333-1,m1126016,l3120534,1682714.65109662,12282252.5915345,1682829.67496873,12282271.6829905,OK,0.0077251893606874004,2,1,75,2025-05-01T18:45:00+10:00
line,line.ln6047581-1,m1026330,l2766726,1666837.30989784,12260148.7609859,1666934.97082593,12260163.1420419,OK,0.0012352822961489076,2,2,75,2025-05-01T18:45:00+10:00
line,line.ln6349077-1,p901912,l3195365,1669871.72910066,12281408.5411017,1669843.11854064,12281289.1386056,OK,0.0000016933596645304897,1,2,46,2025-05-01T11:30:00+10:00
line,line.ln6350574-1,m1108381,l3254237,1679631.53454975,12279302.0952758,1679418.22715755,12279173.2596916,OK,0.0136780102328058,2,2,75,2025-05-01T18:45:00+10:00
line,line.ln6320343-1,l2804262,l2841639,1666833.95936983,12284485.0917606,1666891.38938589,12284723.2700648,OK,0.024896475303219496,2,1,75,2025-05-01T18:45:00+10:00
line,line.ln81048100-5,n1230123,l2708744,1680766.00776681,12279313.0193078,1680782.09275882,12279458.4068279,OK,0.07026807146225159,2,2,75,2025-05-01T18:45:00+10:00
line,line.ln6348946-1,m1069519,p901927,1675041.54056148,12284646.2980327,1675067.1487535,12284654.9487848,OK,0.0020171282726770628,2,2,75,2025-05-01T18:45:00+10:00
line,line.ln5744351-1,l2897790,l2935566,1675743.33281813,12285735.7398258,1675895.26984227,12285561.6311536,OK,0.0020949134664413173,2,3,75,2025-05-01T18:45:00+10:00
line,line.ln5472342-1,m1026931,l3216337,1666365.8111454,12286482.9485305,1666187.02074523,12286529.7494265,OK,0.0011095221681771106,2,1,75,2025-05-01T18:45:00+10:00
line,line.ln5621849-1,p901931,m1069548,1675620.43233802,12285903.9625459,1675629.82856203,12285891.1011059,OK,0.005431648400711178,2,3,74,2025-05-01T18:30:00+10:00
line,line.ln6379375-1,m1010013,l3120503,1662315.22349363,12294474.1749059,1662404.34016571,12294317.9166017,OK,0.001121659223290055,2,1,75,2025-05-01T18:45:00+10:00
line,line.ln6028890-1,m1089145,l3215385,1678531.48411673,12270114.7959392,1678635.00232482,12270171.4313313,OK,0.004212877452509149,2,2,75,2025-05-01T18:45:00+10:00
line,line.ln6380822-1,m1026854,m1026852,1666749.15168976,12284240.8513764,1666319.62055336,12284211.4380003,OK,0.1384208338596444,2,1,75,2025-05-01T18:45:00+10:00
line,line.ln5835131-1,l2935549,m1069420,1673877.42868839,12276709.0610333,1673792.57185632,12276405.6703131,OK,0.08389575098192115,2,2,75,2025-05-01T18:45:00+10:00
line,line.ln5803262-7,l3157708,n1137991,1669663.69735647,12282007.3681103,1669708.51578851,12281995.4979023,OK,0.0008402450129950639,2,3,75,2025-05-01T18:45:00+10:00
line,line.ln81048089-1,m1108413,m1108460,1680891.59522293,12279696.5933241,1680807.45519085,12280112.3332285,OK,0.040245034939094836,2,1,75,2025-05-01T18:45:00+10:00
line,line.ln6201699-1,p827532,m1047326,1671178.88148588,12264049.0418216,1671167.40858987,12264070.0379176,OK,0.002962375349906891,2,1,75,2025-05-01T18:45:00+10:00
line,line.ln5746548-1,e182732,m1026760,1667533.41281049,12279353.2829878,1667519.71578647,12279326.4582838,OK,0.09139070621269077,2,1,75,2025-05-01T18:45:00+10:00
line,line.ln5835174-1,l3048205,m1108361,1679132.33045329,12273857.2783747,1678780.65198896,12274395.2019592,OK,0.05234513816646151,2,3,75,2025-05-01T18:45:00+10:00
line,line.ln6505947-4,m3036169,l2673317,1667530.81594648,12275370.1441681,1667537.48833049,12275364.8398481,OK,0.025252372675766698,2,1,75,2025-05-01T18:45:00+10:00
line,line.ln5683833-1,l3178981,m1047368,1672330.52923095,12265673.7611831,1671812.33607847,12266158.8832315,OK,0.04241010302355254,2,2,75,2025-05-01T18:45:00+10:00
line,line.ln5561439-3,m1069519,n1136354,1675041.54056148,12284646.2980327,1675244.71035367,12285098.3899372,OK,0.08272007185767354,2,2,75,2025-05-01T18:45:00+10:00
line,line.ln6109190-1,l2879794,m1142811,1684632.14844241,12273382.6379903,1684559.75164234,12273298.8297342,OK,0.006568820115199169,2,1,75,2025-05-01T18:45:00+10:00
line,line.ln6258435-2,m1047702,n1137002,1670249.62196502,12285031.1622891,1670188.25978896,12285034.7176171,OK,0.0036757810802792172,2,1,75,2025-05-01T18:45:00+10:00
line,line.ln5804819-1,m1069565,l2785536,1673864.93998438,12286437.7286904,1674126.15828863,12286985.6219389,OK,0.0012132763338872474,2,2,75,2025-05-01T18:45:00+10:00
line,line.ln5593215-1,l3104114,m1009824,1661735.66816509,12283708.9489119,1661553.55181292,12283715.5107039,OK,0.045088395712368834,2,2,75,2025-05-01T18:45:00+10:00
line,line.ln5833717-1,l2745848,l2673308,1673008.00353558,12279608.4392121,1673143.28212771,12279476.6995639,OK,0.10685110158342839,2,2,75,2025-05-01T18:45:00+10:00
line,line.ln6199557-1,l2673308,l2991939,1673143.28212771,12279476.6995639,1673359.78849591,12279177.3311156,OK,0.10377908803654115,2,2,75,2025-05-01T18:45:00+10:00
line,line.ln5744332-1,l2916606,l2822864,1679248.0383574,12272884.6708858,1679085.97192524,12272763.3883257,OK,0.00128286299728095,2,3,75,2025-05-01T18:45:00+10:00
line,line.ln5558790-1,m1142851,196-31070,1686060.60796374,12275612.6396563,1686023.26473171,12275638.5591444,OK,0.6617764288776183,2,1,75,2025-05-01T18:45:00+10:00
line,line.ln6078692-1,m1209822,m1209823,1691955.00592123,12280203.1169726,1691905.82524918,12280383.4843328,OK,0.04437633721604969,2,3,75,2025-05-01T18:45:00+10:00
line,line.ln5956482-1,m1069550,m1069551,1674558.24123303,12285946.458546,1674544.69166502,12285947.740594,OK,0.070956044716847,2,2,75,2025-05-01T18:45:00+10:00
line,line.ln5593225-1,l2860483,l3141397,1668221.44250713,12289426.6986772,1667974.5479149,12289462.7311892,OK,0.0020759750662118367,2,2,75,2025-05-01T18:45:00+10:00
line,line.ln6900591-26,l3649299,m3772794,1668007.93441093,12284479.5580646,1668007.97537093,12284492.2843366,OK,0.014942556250205425,2,1,75,2025-05-01T18:45:00+10:00
line,line.ln5952393-1,p895106,l3048887,1682004.97813596,12277941.1091625,1681875.42165584,12277965.1199145,OK,0.008443867748199031,2,2,75,2025-05-01T18:45:00+10:00
line,line.ln6350531-1,m1047824,m1047834,1668886.44858775,12292760.0603443,1668736.78074761,12294111.8796096,OK,0.008296313547147988,2,2,75,2025-05-01T18:45:00+10:00
line,line.ln5965099-10,m1069350,n1144668,1674365.26228885,12273394.8809343,1674373.72462486,12273307.5337342,OK,0.06109244014467704,2,3,75,2025-05-01T18:45:00+10:00
line,line.ln6047568-1,l2879072,m1047441,1672205.94119884,12275412.6401681,1671455.18126214,12275454.0712082,OK,0.05005426483212919,2,2,75,2025-05-01T18:45:00+10:00
line,line.ln5926292-1,m1108274,m1108269,1679829.38773394,12266599.1786559,1679869.18037397,12266402.0791358,OK,0.0020037303980310023,2,2,75,2025-05-01T18:45:00+10:00
line,line.ln6380806-1,l3235244,m1069398,1674866.87892932,12274704.2615435,1675068.9182255,12274662.2980234,OK,0.004809329779501769,2,1,75,2025-05-01T18:45:00+10:00
line,line.ln6341781-3,n1147862,l2685805,1663131.45389439,12284408.4187365,1663421.52442266,12284365.7220325,OK,0.0018569578794474496,2,1,75,2025-05-01T18:45:00+10:00
line,line.ln8979367-1,m1069247,m1069248,1674825.80424128,12272219.0381172,1675228.67451365,12272219.7303412,OK,0.0050073916510115215,2,1,75,2025-05-01T18:45:00+10:00
line,line.ln6018340-1,l2786273,m1108278,1680133.60994222,12266654.319008,1680482.17544655,12266717.868448,OK,0.00381077820661904,2,2,75,2025-05-01T18:45:00+10:00
line,line.ln6380847-1,l3254238,m1047303,1669897.25946869,12262766.2196764,1669665.00807647,12262537.7611802,OK,0.06469442776281675,2,2,75,2025-05-01T18:45:00+10:00
line,line.ln8961797-1,m1047633,l2897554,1669556.47226837,12284060.7420642,1669859.82202865,12284332.0078564,OK,0.00762669675075464,2,3,75,2025-05-01T18:45:00+10:00
line,line.ln6077797-1,m1069627,l2897791,1673453.001168,12288390.3697162,1673685.78094422,12288009.2983559,OK,0.008191590852361928,2,2,75,2025-05-01T18:45:00+10:00
line,line.ln6077773-1,m1089097,m1108270,1678669.76917286,12266422.0880958,1678940.67861311,12266453.4020158,OK,0.00900995596164664,2,2,75,2025-05-01T18:45:00+10:00
line,line.ln5837496-4,n1142101,l2936214,1681060.98530308,12281091.9243974,1680942.32827897,12281116.7092935,OK,0.0019171193270026378,2,1,75,2025-05-01T18:45:00+10:00
line,line.ln5623392-1,l3066810,l2897769,1673918.31905643,12277713.1708583,1673493.65806404,12277690.0284583,OK,0.006365354587441704,2,3,75,2025-05-01T18:45:00+10:00
line,line.ln5624380-1,m1209758,m1209753,1692909.61968212,12273837.3595267,1692894.66928211,12273440.4407423,OK,0.004420059819052124,2,2,75,2025-05-01T18:45:00+10:00
line,line.ln6422809-2,m1047528,l2858166,1670267.38222103,12282578.9853908,1670253.61966102,12282586.8619988,OK,0.2609830016689736,2,2,75,2025-05-01T18:45:00+10:00
line,line.ln5799561-1,m1142843,l3081380,1686425.40182008,12275361.6900241,1686081.98089176,12275244.626344,OK,0.25778353341687377,2,3,75,2025-05-01T18:45:00+10:00
line,line.ln6229818-1,l2804272,l2841641,1674436.47124891,12285662.4705777,1674662.30830512,12285532.2218736,OK,0.0012130745737801943,2,2,75,2025-05-01T18:45:00+10:00
line,line.ln5593230-1,m1069393,m1069408,1673027.3817116,12274633.0198154,1672850.93831944,12274779.0094476,OK,0.057063233807356104,2,2,75,2025-05-01T18:45:00+10:00
line,line.ln5563901-3,n1142104,m1108500,1680818.96904686,12281860.2029261,1680795.95771884,12282007.6384463,OK,0.576216850048355,2,1,75,2025-05-01T18:45:00+10:00
line,line.ln6320339-1,l3216348,l2841627,1671313.50881401,12272422.7813494,1670741.13377347,12272190.3661171,OK,0.00694128443889353,2,1,75,2025-05-01T18:45:00+10:00
line,line.ln5986927-1,m1026925,l2916599,1667245.43124222,12286219.5183862,1667296.50836227,12286221.1813622,OK,0.0018438015524440854,2,1,75,2025-05-01T18:45:00+10:00
line,line.ln6047567-1,m1047447,l2954349,1670756.71086149,12275849.6710806,1670646.29908538,12275985.9286167,OK,0.0020706189976908334,2,2,75,2025-05-01T18:45:00+10:00
line,line.ln5714047-1,l3235246,l2710512,1671107.91009381,12292264.7802158,1671150.27092585,12292514.5010481,OK,0.025805134556705224,2,2,75,2025-05-01T18:45:00+10:00
line,line.ln5563934-1,m1125911,l2711224,1683010.3577209,12272718.9098616,1683114.568153,12272389.0507893,OK,0.010225023421401802,2,2,75,2025-05-01T18:45:00+10:00
line,line.ln6169249-3,n1147863,l3122817,1663237.10202248,12285249.3480173,1663226.94803847,12285259.5880173,OK,0.00210118406003053,2,3,75,2025-05-01T18:45:00+10:00
line,line.ln6230800-1,m1186061,l2861223,1691061.8403524,12274351.8417032,1690968.05014431,12274277.5402631,OK,0.002008025283498781,2,2,75,2025-05-01T18:45:00+10:00
line,line.ln5985339-2,m1069130,l3085396,1673183.31643175,12265164.1532466,1673424.98043197,12265072.4315185,OK,0.0029486723779742815,2,1,75,2025-05-01T18:45:00+10:00
line,line.ln5898059-3,e182730,n1142109,1667685.52596263,12279697.4207161,1667613.39130656,12279729.1401402,OK,0.0025952196473782744,2,1,75,2025-05-01T18:45:00+10:00
line,line.ln5956457-2,m1069417,n1138597,1673856.39163237,12275198.9108879,1673856.91182437,12275094.6676878,OK,0.08081515666039461,2,2,75,2025-05-01T18:45:00+10:00
line,line.ln5865229-1,m1026987,m1026990,1668140.91105105,12290267.460022,1668187.08935509,12290448.8595741,OK,0.020736615687186363,2,2,75,2025-05-01T18:45:00+10:00
line,line.ln6018331-1,m1142832,l3160865,1685356.98069909,12275067.2900238,1685145.19292289,12275007.4556558,OK,0.24700302627417822,2,3,75,2025-05-01T18:45:00+10:00
line,line.ln6199535-1,l2673323,m1009809,1662704.22061399,12282531.1318228,1662473.71821377,12282575.4013908,OK,0.002112076486317305,2,3,75,2025-05-01T18:45:00+10:00
line,line.ln5502538-1,l2822869,m1026808,1668726.1434356,12281507.6888778,1668484.25005937,12281312.2687176,OK,0.11353086512069296,2,1,75,2025-05-01T18:45:00+10:00
line,line.ln5742816-2,m1047825,m1069731,1672472.69729509,12292763.2265523,1672754.66183935,12292748.3785523,OK,0.014598570620490732,2,2,75,2025-05-01T18:45:00+10:00
line,line.ln6229803-3,n1140520,l2729410,1668499.69197939,12281312.2810056,1668574.25556345,12281312.3465416,OK,0.0021102731984055183,2,3,75,2025-05-01T18:45:00+10:00
line,line.ln5986930-1,m1026646,l3178978,1667921.66036285,12275065.2420238,1668441.02087533,12274683.3391755,OK,0.018897998541682896,2,1,75,2025-05-01T18:45:00+10:00
line,line.ln6350532-1,m1069384,l3066805,1674474.31009695,12274550.6492553,1674596.05140906,12274500.4486793,OK,0.0018455062500135433,2,1,75,2025-05-01T18:45:00+10:00
line,line.ln5588016-3,l2710546,m4362181,1669268.7692281,12276376.129961,1669200.14484404,12276426.2281371,OK,0.022658786183939177,2,2,75,2025-05-01T18:45:00+10:00
line,line.ln5623409-1,m1047319,m1047318,1668880.86164374,12263661.5520292,1668637.94017151,12263654.8919332,OK,0.004202361791938083,2,3,75,2025-05-01T18:45:00+10:00
line,line.ln6350560-1,l3216358,m1026826,1665653.09076073,12283320.3204315,1665663.44954474,12283170.4887514,OK,0.022527961533758342,2,1,75,2025-05-01T18:45:00+10:00
line,line.ln5472347-1,m1108274,m1108276,1679829.38773394,12266599.1786559,1679999.9984221,12266630.09936,OK,0.005811069788642138,2,2,75,2025-05-01T18:45:00+10:00
line,line.ln6290199-1,m1089198,m1089201,1677674.10120393,12282933.9611351,1677152.93025944,12283190.4280794,OK,0.5261172400808201,2,2,75,2025-05-01T18:45:00+10:00
line,line.ln6409775-3,m1047763,n1136027,1670298.08174106,12288479.5109643,1670342.5561091,12288439.9599883,OK,0.012549002904186684,2,1,75,2025-05-01T18:45:00+10:00
line,line.ln5591811-1,l3101827,m1108540,1680962.70997499,12283180.8065754,1681119.11983114,12283645.5305438,OK,0.015693238029080847,2,3,75,2025-05-01T18:45:00+10:00
line,line.ln6229808-1,m1026335,l2804259,1667171.65818615,12260391.3793542,1667324.38983429,12260220.371354,OK,0.0018661830556557038,2,1,75,2025-05-01T18:45:00+10:00
line,line.ln5651985-3,n1136357,l2897790,1675665.94709006,12285841.6623859,1675743.33281813,12285735.7398258,OK,0.004181713796163136,2,3,74,2025-05-01T18:30:00+10:00
line,line.ln6047577-1,m1047513,m1047507,1669570.57070038,12282032.0301263,1669375.2447482,12281914.2619342,OK,0.22104498177328014,2,1,75,2025-05-01T18:45:00+10:00
line,line.ln5528574-2,m1142863,n1141480,1685676.71036338,12275880.7802006,1685666.18773937,12275869.9380886,OK,0.002522175600109822,2,3,75,2025-05-01T18:45:00+10:00
line,line.ln5896827-1,m1125916,l2879767,1682933.44712883,12272899.7154938,1682759.19100067,12273046.0491899,OK,0.0016323870804886389,2,2,75,2025-05-01T18:45:00+10:00
line,line.ln5774451-1,l3066809,m1069487,1673559.6405281,12280532.2305729,1673675.13134421,12280706.1180611,OK,0.018235425802445242,2,3,75,2025-05-01T18:45:00+10:00
line,line.ln5504876-1,m1142818,p829965,1684327.31183413,12273985.1882628,1684366.57199416,12273768.4689026,OK,0.011599284020869398,2,1,75,2025-05-01T18:45:00+10:00
line,line.ln5860423-4,q14733,m1047568,1671979.51841463,12283143.7102553,1671979.51841463,12283141.7102553,OK,0.4840682373488459,2,1,75,2025-05-01T18:45:00+10:00
line,line.ln6138613-1,m1047326,m1047322,1671167.40858987,12264070.0379176,1671187.23732589,12263966.5279015,OK,0.0018519795089275244,2,1,75,2025-05-01T18:45:00+10:00
line,line.ln6077771-1,m1009824,l2954338,1661553.55181292,12283715.5107039,1661452.79840482,12283717.3989599,OK,0.03850816165583459,2,2,75,2025-05-01T18:45:00+10:00
line,line.ln6138636-1,m1047409,l2841648,1671166.63034987,12272800.0516217,1671570.81953425,12272898.4703098,OK,0.002246068518822223,2,1,75,2025-05-01T18:45:00+10:00
line,line.ln6199512-1,m1089177,l2729406,1677022.93960332,12277941.0395305,1677474.04027574,12277937.7504425,OK,0.0034430819242289444,2,3,75,2025-05-01T18:45:00+10:00
line,line.ln6047564-1,m1026951,l2954347,1664875.32999201,12288132.780468,1665090.37818421,12288171.131316,OK,0.004087873248465983,2,2,75,2025-05-01T18:45:00+10:00
line,line.ln6258460-3,m4122657,l3027124,1688200.20271773,12283062.1946073,1687747.34895731,12282739.970479,OK,0.0021180224105524724,2,3,75,2025-05-01T18:45:00+10:00
line,line.ln5683810-1,m1069419,m1069418,1673756.98171228,12275633.8200723,1673805.72820833,12275482.3786642,OK,0.08390239630561869,2,2,75,2025-05-01T18:45:00+10:00
line,line.ln5852082-1,m1026824,p859694,1663101.80704636,12283078.7875033,1663080.67578234,12283085.3943513,OK,0.012694321990479557,2,3,75,2025-05-01T18:45:00+10:00
line,line.ln6380816-1,m1047453,l2691948,1669661.67802847,12276053.0415767,1669586.9833724,12275837.2479125,OK,0.0012426397537478057,2,2,75,2025-05-01T18:45:00+10:00
line,line.ln6108138-2,p860892,n1139543,1675629.44353803,12268914.7990101,1675594.23432199,12268914.9014101,OK,0.006688008380201532,2,3,75,2025-05-01T18:45:00+10:00
line,line.ln6167732-2,m1089205,n1134472,1676964.86651527,12283336.6921435,1676973.06670728,12283383.3742556,OK,0.0018306760156033084,2,1,75,2025-05-01T18:45:00+10:00
line,line.ln6229831-1,l2710542,l2729430,1663022.61907828,12283531.3422557,1662906.80877418,12283538.3996637,OK,0.05248825023100003,2,2,75,2025-05-01T18:45:00+10:00
line,line.ln6504020-2,m3032980,m3032977,1690965.82192031,12274981.2371597,1690139.94953554,12275145.1140239,OK,0.8624071802482779,2,1,75,2025-05-01T18:45:00+10:00
line,line.ln81354561-2,m3763618,p1121282,1668719.22938759,12283634.3976158,1668729.1171316,12283641.9055838,OK,0.005666821400771761,2,3,75,2025-05-01T18:45:00+10:00
line,line.ln5654476-1,l2917330,l2861222,1684389.05084218,12273101.218214,1684198.23049001,12272877.8920058,OK,0.002829007043502768,2,1,75,2025-05-01T18:45:00+10:00
line,line.ln6987572-4,m1047490,p1164481,1670303.60724507,12280731.3821891,1670321.60097308,12280625.750445,OK,0.03263663792651758,2,1,75,2025-05-01T18:45:00+10:00
line,line.ln6260025-1,m1069356,m1069363,1675048.75361748,12273446.6666623,1675263.48232168,12273491.1533184,OK,0.002128258552808662,2,3,75,2025-05-01T18:45:00+10:00
line,line.ln5926291-1,m1069418,m1069417,1673805.72820833,12275482.3786642,1673856.39163237,12275198.9108879,OK,0.0839044198794695,2,2,75,2025-05-01T18:45:00+10:00
line,line.ln8961800-1,p828359,l2878848,1669966.79726075,12283867.165104,1669576.16993239,12283750.6379999,OK,0.021000801242150504,2,3,75,2025-05-01T18:45:00+10:00
line,line.ln6437757-1,m1047486,l3177665,1671735.5811344,12280409.2195008,1671675.58292634,12280408.9778368,OK,0.002781619685430768,2,1,75,2025-05-01T18:45:00+10:00
line,line.ln5594245-1,m1108278,l2805036,1680482.17544655,12266717.868448,1680695.42139874,12266761.2491841,OK,0.0007970997453715176,2,2,75,2025-05-01T18:45:00+10:00
line,line.ln5957492-1,l2692654,m1125929,1683215.62876109,12273383.6906623,1683212.38472909,12273390.7644543,OK,0.0028120033423621855,2,1,75,2025-05-01T18:45:00+10:00
line,line.ln5956464-1,m1047669,m1047672,1670298.58145306,12284547.2895206,1670298.63060506,12284558.4265447,OK,0.12097970309886195,2,2,75,2025-05-01T18:45:00+10:00
line,line.ln6171683-1,m1125919,p829961,1683334.2980732,12273089.388966,1683321.48168919,12273121.178022,OK,0.003931238172423915,2,1,75,2025-05-01T18:45:00+10:00
line,line.ln5625715-1,m1142819,p829960,1684492.22908228,12274167.738791,1684487.05173827,12274174.140839,OK,0.0028455151334424392,2,2,75,2025-05-01T18:45:00+10:00
line,line.ln5746706-2,p829979,m3036172,1691639.80643294,12274625.5323274,1691645.02064094,12274518.8110473,OK,0.008833576210259361,2,2,75,2025-05-01T18:45:00+10:00
line,line.ln5653491-1,m1026883,m1026898,1668559.44033144,12285061.9314411,1668558.80135544,12285264.1181933,OK,0.002517616972296306,2,3,75,2025-05-01T18:45:00+10:00
line,line.ln5472361-1,m1089143,l3141400,1678554.22920475,12269872.861603,1678773.45941295,12269650.5880668,OK,0.0007579929547781231,2,1,75,2025-05-01T18:45:00+10:00
line,line.ln5683856-2,m1069469,n1139263,1673628.44513616,12278797.9145393,1673655.35995219,12278801.3797553,OK,0.0018481286813492662,2,1,75,2025-05-01T18:45:00+10:00
line,line.ln5565091-1,m1069481,p827507,1672943.77006352,12279668.8183481,1672926.26785551,12279641.8257081,OK,0.002532924871298841,2,3,75,2025-05-01T18:45:00+10:00
line,line.ln5653466-1,m1026377,l3048210,1667348.67911431,12262175.4290198,1667054.34874604,12262471.5206681,OK,0.0028072487129336254,2,1,75,2025-05-01T18:45:00+10:00
line,line.ln5534966-2,e182722,n1138596,1673833.48270435,12274468.2582153,1673874.29115239,12274484.2244233,OK,0.016076878668617896,2,1,75,2025-05-01T18:45:00+10:00
line,line.ln6409762-1,m1026331,l3214055,1666972.51066596,12260276.83881,1666869.95092187,12260448.5308422,OK,0.001255204608858208,2,3,75,2025-05-01T18:45:00+10:00
line,line.ln6109158-1,m1108295,l2936279,1680836.50811888,12270559.9205476,1680562.39970262,12270541.4107236,OK,0.15577936145235888,2,2,75,2025-05-01T18:45:00+10:00
line,line.ln5835145-1,m1026704,l2841634,1667884.08365881,12278196.4619947,1667855.96052279,12277659.4886822,OK,0.0031192162801967423,2,2,75,2025-05-01T18:45:00+10:00
line,line.ln5774493-1,m1047386,m1047379,1670422.96878118,12266801.4391361,1670519.69991727,12266504.8682558,OK,0.00732448262339869,2,2,75,2025-05-01T18:45:00+10:00
line,line.ln5835143-1,m1089118,m1089115,1676496.02197083,12268725.4818899,1676011.12110638,12268510.4582737,OK,0.12071820680380686,2,2,75,2025-05-01T18:45:00+10:00
line,line.ln5926315-1,m1026486,m1026488,1668058.89684297,12267885.6667211,1668027.25114695,12267901.6288331,OK,0.001221814290690744,2,2,75,2025-05-01T18:45:00+10:00
line,line.ln5895786-1,m1026364,l3010570,1666951.89959394,12261536.7602192,1666792.8519138,12261651.3908753,OK,0.001122036199783394,2,1,75,2025-05-01T18:45:00+10:00
line,line.ln81048102-5,p904451,221-282819,1680888.52731892,12279304.5487798,1680874.47803891,12279310.6968758,OK,0.04721573584249208,2,1,75,2025-05-01T18:45:00+10:00
line,line.ln5861084-1,m1125968,p895107,1682159.56117611,12277912.9204905,1682162.47752811,12277885.3462184,OK,0.007409244357719096,2,3,75,2025-05-01T18:45:00+10:00
line,line.ln5774455-2,m1047672,n1136999,1670298.63060506,12284558.4265447,1670351.20276511,12284557.4435047,OK,0.003665490327048638,2,1,75,2025-05-01T18:45:00+10:00
line,line.ln6108132-1,m1069412,l2879061,1672653.92071925,12274970.9398157,1672845.51111943,12275161.2317839,OK,0.0008234674900721192,2,2,75,2025-05-01T18:45:00+10:00
line,line.ln6077775-1,m1026947,m1026946,1664668.33043982,12287843.1809797,1664871.86887201,12287436.3785473,OK,0.0032746931521615485,2,2,75,2025-05-01T18:45:00+10:00
line,line.ln5591718-1,m1142880,l2891575,1686350.64572401,12286465.3316344,1686093.82652377,12286266.9172983,OK,0.0012672774159525222,2,3,75,2025-05-01T18:45:00+10:00
line,line.ln5653461-1,m1026848,m1026847,1664416.63123958,12284147.5936483,1664200.69011938,12284146.3156963,OK,0.0018521959358079332,2,1,75,2025-05-01T18:45:00+10:00
line,line.ln6290229-1,l2897793,m1069521,1672926.52180751,12284878.328241,1672887.10190347,12284952.441265,OK,0.006844475109563354,2,1,75,2025-05-01T18:45:00+10:00
line,line.ln5774463-1,m1069175,l3197637,1675199.13006562,12267998.9497932,1675069.0615855,12268213.6416334,OK,0.0008349006509941079,2,3,75,2025-05-01T18:45:00+10:00
line,line.ln6380814-1,m1047441,l3197635,1671455.18126214,12275454.0712082,1671634.0617743,12275365.9293841,OK,0.0012420125595682772,2,2,75,2025-05-01T18:45:00+10:00
line,line.ln5895776-1,l2804257,l2860485,1664772.59821591,12292311.0486319,1664577.64090373,12292312.4617519,OK,0.004506044373488227,2,2,75,2025-05-01T18:45:00+10:00
line,line.ln6200439-1,l3235945,l2842330,1681312.75003932,12283848.602032,1681417.14888742,12283859.182,OK,0.009420182832472597,2,3,75,2025-05-01T18:45:00+10:00
line,line.ln6138601-1,l2804254,m1047752,1671689.93121436,12288039.9814919,1671672.42900634,12288000.0004359,OK,0.002959072113468748,2,1,75,2025-05-01T18:45:00+10:00
line,line.ln5927421-1,m1166370,m1166364,1689139.46876661,12275313.9019921,1689132.2434226,12275200.3035279,OK,0.002098681530206358,2,3,75,2025-05-01T18:45:00+10:00
line,line.ln5532748-5,m1047592,m3763619,1668812.72058768,12283524.2602717,1668691.56500356,12283575.4684637,OK,0.18855363580511525,2,1,75,2025-05-01T18:45:00+10:00
line,line.ln6506318-4,m3037540,l2710509,1678913.37877308,12274857.1488396,1678923.98741309,12274859.9300236,OK,0.0034249488749179395,2,3,75,2025-05-01T18:45:00+10:00
line,line.ln6288856-3,l2763072,m4118754,1665426.63111252,12258785.6080887,1665257.40077637,12258616.7382005,OK,0.038783289375234155,2,2,75,2025-05-01T18:45:00+10:00
line,line.ln5653452-1,m1089196,m1089198,1677997.98830823,12282799.751599,1677674.10120393,12282933.9611351,OK,0.5261159119938822,2,2,75,2025-05-01T18:45:00+10:00
line,line.ln6290205-1,m1047484,l3010560,1672044.01812669,12280300.0406207,1672215.70196685,12280209.9982526,OK,0.10888283503511469,2,2,75,2025-05-01T18:45:00+10:00
line,line.ln6350547-1,l3254219,l3254220,1671880.14945453,12264838.7219503,1671856.96199851,12265047.9702065,OK,0.0020976559820626447,2,3,75,2025-05-01T18:45:00+10:00
line,line.ln6229800-1,m1026648,m1026647,1667200.08442618,12275753.2553365,1667270.61345024,12275597.1772563,OK,0.027128084432586467,2,1,75,2025-05-01T18:45:00+10:00
line,line.ln6138609-1,m1089112,l2691951,1675750.86945814,12268360.8109136,1675749.12046614,12268574.1920338,OK,0.05061337104739197,2,3,75,2025-05-01T18:45:00+10:00
line,line.wd701_48332_sw,228-1048090-1_int,193-51796,1680144.86984623,12279507.043308,1680144.86984623,12279506.043308,DISABLED,,,,,
line,line.ln81048090-1,m1108433,228-1048090-1_int,1680151.05480624,12279882.8097723,1680144.86984623,12279507.043308,OK,0.00004353272815886594,1,2,51,2025-05-01T12:45:00+10:00
line,line.ln5683828-1,m1026327,l2841636,1666556.70112958,12259881.4396417,1666311.51047335,12259640.7300095,OK,0.04620392082967459,2,2,75,2025-05-01T18:45:00+10:00
line,line.ln8979256-1,m1089183,l2990826,1678662.94933285,12279553.204652,1678542.04770074,12279603.163564,OK,0.004466739257517847,2,3,75,2025-05-01T18:45:00+10:00
line,line.ln6506317-2,l2911069,l2948732,1657953.22105756,12284279.9886564,1657764.13740939,12283586.0975838,OK,0.0012403435120267555,2,2,75,2025-05-01T18:45:00+10:00
line,line.ln6078744-1,m1108260,m1108259,1679999.9984221,12259611.1200254,1680069.86799016,12259517.2888573,OK,0.0031889246639318376,2,2,75,2025-05-01T18:45:00+10:00
line,line.ln81018875-1,m1069312,p873800,1674324.77332881,12272919.3721978,1674340.80097683,12272901.4194298,OK,0.005794415791335754,2,3,75,2025-05-01T18:45:00+10:00
line,line.ln6078691-1,p901951,m1186078,1691331.97974465,12281760.6987981,1691079.03945641,12282276.7702225,OK,0.03384312308475126,2,3,75,2025-05-01T18:45:00+10:00
line,line.ln6258439-1,l2876797,r18241,1670275.23015704,12288092.352948,1670273.23130904,12288254.3374601,OK,0.11691547367838366,2,2,75,2025-05-01T18:45:00+10:00
line,line.ln6108164-1,l3254227,m1069550,1674699.34024116,12285880.6604019,1674558.24123303,12285946.458546,OK,0.07746687650397698,2,2,75,2025-05-01T18:45:00+10:00
line,line.ln5927379-2,m3037455,l3217052,1685008.93129076,12275185.0090639,1684775.18076254,12275194.8394639,OK,0.002109351448422887,2,3,75,2025-05-01T18:45:00+10:00
line,line.ln6110365-1,p827500,l2822861,1673899.63310441,12276990.9518496,1673577.52776011,12276992.8810656,OK,0.0036947586095656816,2,1,75,2025-05-01T18:45:00+10:00
line,line.ln5773040-1,m1047724,m1047722,1670043.96999682,12286085.0508021,1669909.7113087,12286048.989618,OK,0.11690021991417505,2,2,75,2025-05-01T18:45:00+10:00
line,line.v7173_48332_sw,d5534969-2_int,e182729,1674554.09198502,12283958.4696161,1674554.09198502,12283957.4696161,OK,0.5253379586230863,2,2,75,2025-05-01T18:45:00+10:00
line,line.ln5534969-2,n1134477,d5534969-2_int,1674607.01230507,12283905.4831841,1674554.09198502,12283958.4696161,OK,0.5253379583646531,2,2,75,2025-05-01T18:45:00+10:00
line,line.ln6015891-1,m1166355,l2858200,1687545.71926112,12274859.4180236,1687627.5286692,12274511.1269513,OK,0.00000492453398288986,1,1,47,2025-05-01T11:45:00+10:00
line,line.ln5683816-1,m1047699,l2935554,1670292.88801306,12285016.4207851,1670295.66919706,12285279.5683053,OK,0.11894294841020397,2,2,75,2025-05-01T18:45:00+10:00
line,line.ln6199561-1,m1047292,l2766750,1668696.70138757,12261694.4889874,1668543.26113143,12261808.2881555,OK,0.0031520808561413477,2,3,75,2025-05-01T18:45:00+10:00
line,line.ln6900591-12,l3649300,l3649301,1668008.60615493,12284692.3002088,1668008.60615493,12284893.004209,OK,0.00941555144535367,2,1,75,2025-05-01T18:45:00+10:00
line,line.ln6411363-1,m1047733,l3066804,1671616.40391829,12286710.3133947,1671571.99508625,12287047.823795,OK,0.002781021704753518,2,1,75,2025-05-01T18:45:00+10:00
line,line.ln6108130-6,m3327098,l2691943,1671532.50964621,12293904.0690494,1671146.39201385,12294235.5910977,OK,0.0012463043805271033,2,2,75,2025-05-01T18:45:00+10:00
line,line.ln5837516-1,p829986,m1125904,1681974.81519194,12272314.1390453,1682023.07426398,12272365.4086773,OK,0.0029899389468048764,2,1,75,2025-05-01T18:45:00+10:00
line,line.ln6017301-4,m3036169,n1139550,1667530.81594648,12275370.1441681,1667501.82855446,12275299.094952,OK,0.0018772045869416784,2,1,75,2025-05-01T18:45:00+10:00
line,line.ln5981121-1,m1026307,l3085388,1663235.35712648,12256493.4045665,1663614.61805484,12256335.7208544,OK,0.0008283315578856465,2,2,75,2025-05-01T18:45:00+10:00
line,line.ln81048107-4,l3233413,m1108464,1680405.94479047,12280172.9622206,1680280.35733436,12280152.5477566,OK,0.01134425798622741,2,2,75,2025-05-01T18:45:00+10:00
line,line.ln5472374-1,l3122827,l2954355,1666495.24064952,12277209.9199138,1666397.94016943,12277044.4619937,OK,0.03234018280799594,2,1,75,2025-05-01T18:45:00+10:00
line,line.ln5746550-2,p827576,n1139256,1673981.11483249,12277221.0938018,1673952.88110446,12277207.0076578,OK,0.0012283957213303325,2,2,75,2025-05-01T18:45:00+10:00
line,line.ln5561437-1,l2952003,m1108381,1679983.17205408,12279289.5205558,1679631.53454975,12279302.0952758,OK,0.017859028760575636,2,2,75,2025-05-01T18:45:00+10:00
line,line.ln6439986-3,n1136359,l3008237,1675574.60628997,12286112.9486581,1675480.11976189,12286113.1043061,OK,0.002086635090375767,2,3,74,2025-05-01T18:30:00+10:00
line,line.ln5744324-1,m1089102,m1089096,1675902.43374628,12266895.6635202,1675915.99150629,12266339.6192317,OK,0.010032503486166237,2,3,75,2025-05-01T18:45:00+10:00
line,line.ln6376708-1,p895102,m1125978,1682352.40495229,12277930.9715625,1682371.7954163,12277957.1245225,OK,0.005148769612956317,2,2,75,2025-05-01T18:45:00+10:00
line,line.ln5895816-2,m1026706,n1140825,1665604.65146469,12278248.0797868,1665607.51456869,12278297.6086188,OK,0.020055177259178145,2,2,75,2025-05-01T18:45:00+10:00
line,line.ln5593235-1,l3141399,m1069210,1673647.20072018,12270513.6808036,1673474.00955202,12270330.3397474,OK,0.0020992621639903263,2,3,75,2025-05-01T18:45:00+10:00
line,line.ln81354563-2,m3763624,p1121283,1668711.62311558,12283618.1938398,1668738.73863561,12283636.4538078,OK,0.030768048975616077,2,3,75,2025-05-01T18:45:00+10:00
line,line.ln5866260-1,m1142839,l3067507,1685589.1706513,12275125.9119759,1685567.28162728,12275262.128552,OK,0.003182988373453343,2,3,75,2025-05-01T18:45:00+10:00
line,line.ln6018243-1,m1108540,l3235945,1681119.11983114,12283645.5305438,1681312.75003932,12283848.602032,OK,0.011507808067307617,2,3,75,2025-05-01T18:45:00+10:00
line,line.ln5928743-3,n1141478,m1142826,1684450.64239424,12274219.303335,1684194.118106,12274537.5092873,OK,0.002847072304751537,2,2,75,2025-05-01T18:45:00+10:00
line,line.ln5957501-1,m1108334,l2692664,1680690.51029474,12272624.0587895,1680809.22056685,12272574.7306615,OK,0.0012757947585040558,2,3,75,2025-05-01T18:45:00+10:00
line,line.ln6379357-1,l2823544,m1126016,1682615.54837653,12282274.2388945,1682714.65109662,12282252.5915345,OK,0.008877045859577456,2,1,75,2025-05-01T18:45:00+10:00
line,line.ln6291252-2,226-23751,l2955081,1681744.61589572,12272155.9187571,1681629.19061561,12272081.019301,OK,0.22659526467490104,2,3,75,2025-05-01T18:45:00+10:00
line,line.ln6440002-3,p827536,n1137999,1665656.35117674,12284188.0006883,1665654.83156074,12284146.8973283,OK,0.027324734250479443,2,1,75,2025-05-01T18:45:00+10:00
line,line.ln6076346-1,l3027157,l2973155,1670257.12993302,12287336.0634112,1670269.04929303,12287698.2808836,OK,0.11691195977388158,2,2,75,2025-05-01T18:45:00+10:00
line,line.ln8978752-1,m1186052,198-5320,1691285.33040061,12273330.6228862,1691275.1436486,12273314.3986302,OK,0.07330469215718573,2,3,75,2025-05-01T18:45:00+10:00
line,line.ln5621834-1,l3216346,l2858163,1663109.56896637,12279533.478316,1663378.61472662,12279196.7994037,OK,0.007663483780392486,2,1,75,2025-05-01T18:45:00+10:00
line,line.ln6108123-1,m1047813,l2973149,1668914.91988377,12291387.031991,1668991.60929184,12291180.5485348,OK,0.0012456187957785706,2,2,75,2025-05-01T18:45:00+10:00
line,line.ln6505952-4,m3036172,l3086079,1691645.02064094,12274518.8110473,1691636.95971293,12274515.1123593,OK,0.0016039742431019973,2,2,75,2025-05-01T18:45:00+10:00
line,line.ln5835159-1,m1069574,l2710530,1673581.15272012,12286687.5519226,1673475.22196802,12286561.2517625,OK,0.0012178942646474081,2,2,75,2025-05-01T18:45:00+10:00
line,line.ln5698090-2,m1069285,m4113348,1674432.62510491,12272646.1362296,1674432.50632091,12272640.4960376,OK,0.009575643646417406,2,3,75,2025-05-01T18:45:00+10:00
line,line.ln5714050-1,l2879074,l3122820,1667786.57018672,12274887.1110797,1667666.90964261,12274675.6509835,OK,0.0029984783988879745,2,1,75,2025-05-01T18:45:00+10:00
line,line.ln5502529-1,m1026915,m1026916,1663539.86195877,12285876.8797939,1663530.03155876,12285878.7311859,OK,0.0030674891318378077,2,2,75,2025-05-01T18:45:00+10:00
line,line.ln5594236-1,e193509,m1142839,1685787.16719549,12275178.0704399,1685589.1706513,12275125.9119759,OK,0.2577860966660438,2,3,75,2025-05-01T18:45:00+10:00
line,line.ln5593248-1,m1047794,m1047796,1670654.56890939,12290043.5276058,1670220.02017299,12290067.4728218,OK,0.0012392114023913289,2,2,75,2025-05-01T18:45:00+10:00
line,line.ln5865272-1,m1047303,l3027116,1669665.00807647,12262537.7611802,1669497.05978831,12262370.689436,OK,0.06264121961523288,2,2,75,2025-05-01T18:45:00+10:00
line,line.ln5924696-3,n1137001,l2929261,1670369.50369313,12285007.2621291,1670531.19329328,12284987.9412971,OK,0.0010991970882759784,2,1,75,2025-05-01T18:45:00+10:00
line,line.ln5589096-1,m1166375,p895080,1688163.4697897,12275377.3080721,1688162.6014377,12275409.3224081,OK,0.0018529997768687132,2,1,75,2025-05-01T18:45:00+10:00
line,line.ln6017295-1,l2973156,m1069393,1673317.46043187,12274385.0315912,1673027.3817116,12274633.0198154,OK,0.0665821688186558,2,2,75,2025-05-01T18:45:00+10:00
line,line.ln5970852-1,m1069311,m1069312,1674411.58395289,12272916.8654458,1674324.77332881,12272919.3721978,OK,0.041870258767145035,2,3,75,2025-05-01T18:45:00+10:00
line,line.ln5683820-1,m1069208,l2691945,1675278.3385137,12270149.6406112,1675222.16187365,12270097.1585632,OK,0.0020906689870870336,2,3,75,2025-05-01T18:45:00+10:00
line,line.ln6286966-3,m1026700,n1140820,1665859.20557693,12278130.2255787,1665839.95028091,12278060.2372266,OK,0.0012205753184888072,2,2,75,2025-05-01T18:45:00+10:00
line,line.ln6167715-1,m1026468,p901909,1668318.71841122,12267595.5798089,1668289.85799519,12267608.4944969,OK,0.0012213988071464225,2,2,75,2025-05-01T18:45:00+10:00
line,line.ln6108140-2,m1026662,n1141473,1663670.99539889,12276922.2455455,1663672.46995889,12276876.5751455,OK,0.0018756354791856947,2,1,75,2025-05-01T18:45:00+10:00
line,line.ln6228279-1,m1026941,m1026942,1666508.92128953,12287080.038835,1666579.0816736,12287087.600051,OK,0.004065156628764336,2,1,75,2025-05-01T18:45:00+10:00
line,line.ln5803264-2,m1047722,n1137985,1669909.7113087,12286048.989618,1669879.28212467,12286040.506802,OK,0.0018431071710192956,2,1,75,2025-05-01T18:45:00+10:00
line,line.ln6132680-1,m1047713,m1047720,1670288.59950105,12285423.3911535,1670157.56846093,12285760.3485938,OK,0.11894616576961109,2,2,75,2025-05-01T18:45:00+10:00
line,line.ln5531195-1,m1108298,196-36167,1681297.9020393,12270990.590372,1681227.04533524,12270882.9966439,OK,0.15577446781729654,2,2,75,2025-05-01T18:45:00+10:00
line,line.ln5985361-1,e183472,l2989566,1681682.00034366,12279248.9414837,1681174.62472719,12279294.0179638,OK,0.05980158377745628,2,2,75,2025-05-01T18:45:00+10:00
line,line.ln6102293-1,m1010007,m1010004,1661968.6568373,12294178.5911616,1661604.96480496,12293800.6737213,OK,0.006734667510298767,2,1,75,2025-05-01T18:45:00+10:00
line,line.ln8989758-1,m1108381,p862322,1679631.53454975,12279302.0952758,1679631.65333375,12279326.3558838,OK,0.00891303051603338,2,3,75,2025-05-01T18:45:00+10:00
line,line.ln6229790-1,m1089188,m1089189,1677050.37870735,12279840.1990843,1677267.15950755,12279858.8317883,OK,0.0053825189536077815,2,3,75,2025-05-01T18:45:00+10:00
line,line.ln5956469-1,l2972704,l3263051,1675326.21665774,12268914.2255701,1675210.75451364,12269045.1173462,OK,0.004184571411033736,2,3,75,2025-05-01T18:45:00+10:00
line,line.ln5803270-3,n1139544,l2897776,1674386.85230487,12271378.5266284,1674459.49076894,12271330.1405803,OK,0.0033512880204591743,2,3,75,2025-05-01T18:45:00+10:00
line,line.ln81048102-6,221-282819,n1230122,1680874.47803891,12279310.6968758,1680856.07061489,12279310.9385398,OK,0.04721619081525891,2,1,75,2025-05-01T18:45:00+10:00
line,line.ln6440070-1,l2748132,l2689726,1670146.82874892,12271940.8214129,1669362.21127619,12271639.1469166,OK,0.00001705105617383682,1,1,47,2025-05-01T11:45:00+10:00
line,line.ln6048626-1,m1142868,m1142869,1685132.31100288,12276242.5594009,1684985.46121074,12276341.428649,OK,0.6552823015065298,2,1,75,2025-05-01T18:45:00+10:00
line,line.ln6076248-1,m1108328,l2767414,1680988.14613502,12272155.1732851,1680868.5716069,12272156.5495411,OK,0.07555975352995203,2,3,75,2025-05-01T18:45:00+10:00
line,line.ln6137083-1,m1027027,l3270853,1666177.63271322,12292807.1479603,1666291.78004133,12292890.7063604,OK,0.0000019398797979598223,1,3,38,2025-05-01T09:30:00+10:00
line,line.ln6286261-1,m1125978,m1125982,1682371.7954163,12277957.1245225,1682523.47848845,12278161.7197227,OK,0.0031014059300755463,2,2,75,2025-05-01T18:45:00+10:00
...